main_code/DGnSolar.glm
//======================================================================================================================================================================
//																Final Year project group number 20
//======================================================================================================================================================================

//#set dateformat=US

//Some items used by the simulation - these set an "exit deltamode convergence"

#define rotor_convergence=0.01

//Deltamode declarations - global values - these have reasonable defaults, this is just to show how to manipulate them
#set deltamode_timestep=60000000000000	//100 ms
#set deltamode_maximumtime=86400000000000	// 24 hours



clock {
	timezone "PST+8PDT";				//Moved this first in the clock block, otherwise it causes issues
    timestamp '2025-01-01 00:00:00';
    stoptime '2025-01-02 00:00:00';		//Shortened the run-time, just because I didn't want to wait as long
}


module tape;
module climate;
module residential{
	implicit_enduses NONE;
};


module powerflow {

	enable_subsecond_models true;	//Enables deltamode for the powerflow module
	deltamode_timestep 5.0 ms;		//Good timestep value for electromechanical diesels
	solver_method NR;				//NR MUST be used for deltamode, otherwise it won't work
	all_powerflow_delta true;		//Saves having to put "flags DELTAMODE;" on every powerflow object
	default_maximum_voltage_error 1e-12;
		
	line_limits FALSE;
	default_maximum_voltage_error 1e-9;

	NR_iteration_limit 50;
    NR_deltamode_iteration_limit 25;
    enable_frequency_dependence true;


}
module generators {
	enable_subsecond_models true;	//Enables deltamode for generator module
	deltamode_timestep 10.0 ms;	//Desired timestep for the generator module models
}
//======================================================================================================================================================================
//																		    main Swing node
//======================================================================================================================================================================
/// main node(node001)//
object node {      
	name node001;		
	bustype SWING;       
	phases ABCN;     
	nominal_voltage 230.94;     
	frequency_measure_type PLL;	//Have to enable the frequency measurement behavior
	object recorder {      
		flags DELTAMODE;	//Must explicitly set the recorder to do deltamode
		file NODE_001.csv;
		interval 1;			//Changed to 1, otherwise it won't record anything interesting in deltamode
		limit 100000000000;
		property voltage_A,voltage_B,voltage_C,voltage_AB,voltage_BC,voltage_CA,current_A,current_B,current_C,power_A,power_B,power_C,measured_angle_A,measured_frequency_A,measured_angle_B,measured_frequency_B,measured_angle_C,measured_frequency_C,measured_frequency;
	};    
}  

//======================================================================================================================================================================
//																		    main Swing node end
//======================================================================================================================================================================

//======================================================================================================================================================================
//																		    over head line declarations
//======================================================================================================================================================================
// Line definition

object line_spacing {
    name line_spacing_200;
    distance_AB 2.5;
    distance_BC 4.5;
    distance_AC 7.0;
    distance_AN 5.656854;
    distance_BN 4.272002;
    distance_CN 5.0;
}

object overhead_line_conductor {
	name overhead_line_conductor_100;
	geometric_mean_radius 0.0244;
	resistance 0.306;
}

object overhead_line_conductor {
	name overhead_line_conductor_101;
	geometric_mean_radius 0.00814;
	resistance 0.592;
}

object line_configuration {
    name line_config_A;
    conductor_A overhead_line_conductor_100;
    conductor_B overhead_line_conductor_100;
    conductor_C overhead_line_conductor_100;
    conductor_N overhead_line_conductor_101;
    spacing line_spacing_200;
}

//======================================================================================================================================================================
//																		over head line declarations end
//======================================================================================================================================================================
//======================================================================================================================================================================
//																		        Climate File 
//======================================================================================================================================================================

object climate {
	name "Spokane WA";
	tmyfile "./WA-Spokane-727850.tmy3"; 
	interpolate LINEAR;
}
//======================================================================================================================================================================
//																		        Climate File end 
//======================================================================================================================================================================

//======================================================================================================================================================================
//																		      Diesel generator
//======================================================================================================================================================================
// Generator 

object diesel_dg {
    name DIESEL_1;
    parent node001;
    flags DELTAMODE;
    Rated_V 400.00;
    Rated_VA 2 MVA;
    
    Gen_type DYN_SYNCHRONOUS;
    rotor_speed_convergence ${rotor_convergence};
    
    // Set realistic initial power output
    power_out_A 80000.0;
    power_out_B 80000.0;
    power_out_C 80000.0;
    
    // Generator mechanical parameters
    inertia 8.0;           // Inertia constant (seconds)
    damping 2.0;        // Damping coefficient
    omega_ref 376.99;        // Reference frequency (Hz)
    
    // Exciter configuration (SEXS type)
	// Add SEXS Exciter for voltage regulation
    Exciter_type SEXS;
    KA 200;                // Exciter gain
    TA 0.02;               // Exciter time constant
    TB 0.1;                // Exciter time constant
    TC 0.1;                // Exciter time constant
    EMAX 5.0;              // Maximum exciter output
    EMIN -5.0;  
    
	// Improved Governor with controls
    Governor_type DEGOV1;
	DEGOV1_R 0.05;         // Governor droop constant (p.u.)
    DEGOV1_T1 0.5;         // Governor electric control box time constant (s)
    DEGOV1_T2 0.1;         // Governor electric control box time constant (s)
    DEGOV1_T3 0.01;        // Governor electric control box time constant (s)
   // DEGOV1_T4 0.0;         // Governor actuator time constant (s)
   // DEGOV1_T5 0.0;         // Governor actuator time constant (s)
   // DEGOV1_T6 0.0;         // Governor actuator time constant (s)
   // DEGOV1_K 1.0;          // Governor actuator gain
    DEGOV1_TMAX 0.23;      // Governor actuator upper limit (p.u.)
    DEGOV1_TMIN 0.0;       // Governor actuator lower limit (p.u.)
   // DEGOV1_TD 0.0;         // Governor combustion delay (s)

}
object recorder {
    parent DIESEL_1;
    name diesel_power_recorder;
    property pwr_electric.real,pwr_electric.imag,pwr_mech;
    flags DELTAMODE;
    interval 1;  // Record every second
    file "diesel_generator_power.csv";
}

//===================================================================================================================================================================
//																		 Diesel generator end
//===================================================================================================================================================================

//===================================================================================================================================================================
//																		       Solar
//===================================================================================================================================================================

//===================================================================== Solar overhead_line========================================================================//

object overhead_line {
	name ovl_solar_connector1_S1;
	phases "ABCN";
	from solar_m1;
	to node20;
	length 20;
	configuration line_config_A;
}


object overhead_line {
	name ovl_solar_connector1_S2;
	phases "ABCN";
	from solar_m2;
	to node52;
	length 20;
	configuration line_config_A;
}

object overhead_line {
	name ovl_solar_connector1_S3;
	phases "ABCN";
	from solar_m3;
	to node86;
	length 20;
	configuration line_config_A;
}

//==================================================================== Solar overhead_line end==============================================================//

//================================================================ Solar meters================================================================//

object meter {     
      name solar_m1;     
      phases ABCN;     
      nominal_voltage 230.94; 
	  bustype PQ;      
}  
object meter {     
      name solar_m2;     
      phases ABCN;     
      nominal_voltage 230.94;
	  bustype PQ;         
}  
object meter {     
      name solar_m3;     
      phases ABCN;     
      nominal_voltage 230.94;
	  bustype PQ;         
}

//================================================================ Solar meters end ================================================================//

//================================================================ Solar inverters================================================================//

object inverter {
	name solar_inv_01;
	phases ABCN;
	parent solar_m1;
	generator_status ONLINE;
	inverter_type FOUR_QUADRANT;
    four_quadrant_control_mode CONSTANT_PF;
    generator_mode SUPPLY_DRIVEN;
    inverter_efficiency .95;
	rated_power 200000;

}
object inverter {
	name solar_inv_02;
	phases ABCN;
	parent solar_m2;
	generator_status ONLINE;
	inverter_type FOUR_QUADRANT;
    four_quadrant_control_mode CONSTANT_PF;
    generator_mode SUPPLY_DRIVEN;
    inverter_efficiency .95;
	rated_power 200000;

}
object inverter {
	name solar_inv_03;
	phases ABCN;
	parent solar_m3;
	generator_status ONLINE;
	inverter_type FOUR_QUADRANT;
    four_quadrant_control_mode CONSTANT_PF;
    generator_mode SUPPLY_DRIVEN;
    inverter_efficiency .95;
	rated_power 200000;

}

//================================================================ Solar inverters end ================================================================//

//================================================================ Solar objects================================================================//

object solar {
    name F1_solar;
    parent solar_inv_01;
    panel_type SINGLE_CRYSTAL_SILICON;
    area 4000 ft^2;
    tilt_angle 47.0;
    efficiency 0.165;
    orientation_azimuth 270;          // West-facing (270°)
    orientation FIXED_AXIS;
    SOLAR_TILT_MODEL SOLPOS;
    SOLAR_POWER_MODEL FLATPLATE;
}
object solar {
    name F2_solar;
    parent solar_inv_02;
    panel_type SINGLE_CRYSTAL_SILICON;
    area 4000 ft^2;
    tilt_angle 47.0;
    efficiency 0.165;
    orientation_azimuth 270;          // West-facing (270°)
    orientation FIXED_AXIS;
    SOLAR_TILT_MODEL SOLPOS;
    SOLAR_POWER_MODEL FLATPLATE;
}
object solar {
    name F3_solar;
    parent solar_inv_03;
    panel_type SINGLE_CRYSTAL_SILICON;
    area 4000 ft^2;
    tilt_angle 47.0;
    efficiency 0.165;
    orientation_azimuth 270;          // West-facing (270°)
    orientation FIXED_AXIS;
    SOLAR_TILT_MODEL SOLPOS;
    SOLAR_POWER_MODEL FLATPLATE;
}
//================================================================ Solar objects ends================================================================//

//================================================================ SOLAR INVERTER POWER RECORDERS================================================================//
// Solar Inverter 1 Power Recorder
object recorder {
    parent solar_inv_01;
    name solar_inv_01_power_recorder;
    property P_Out,power_factor;
    flags DELTAMODE;
    interval 60;  // Record every minute
    file "solar_inverter_01_power.csv";
}

// Solar Inverter 2 Power Recorder
object recorder {
    parent solar_inv_02;
    name solar_inv_02_power_recorder;
    property P_Out,power_factor;
    flags DELTAMODE;
    interval 60;  // Record every minute
    file "solar_inverter_02_power.csv";
}

// Solar Inverter 3 Power Recorder
object recorder {
    parent solar_inv_03;
    name solar_inv_03_power_recorder;
    property P_Out,power_factor;
    flags DELTAMODE;
    interval 60;  // Record every minute
    file "solar_inverter_03_power.csv";
}


// Solar Panel 1 Power Recorder
object recorder {
    parent F1_solar;
    name solar_panel_01_recorder;
    property "P_Out,V_Out,I_Out";
    flags DELTAMODE;
    interval 60;  // Record every minute
    file "solar_panel_01_power.csv";
}

// Solar Panel 2 Power Recorder
object recorder {
    parent F2_solar;
    name solar_panel_02_recorder;
    property "P_Out,V_Out,I_Out";
    flags DELTAMODE;
    interval 60;  // Record every minute
    file "solar_panel_02_power.csv";
}

// Solar Panel 3 Power Recorder
object recorder {
    parent F3_solar;
    name solar_panel_03_recorder;
    property "P_Out,V_Out,I_Out";
    flags DELTAMODE;
    interval 60;  // Record every minute
    file "solar_panel_03_power.csv";
}

//================================================================ SOLAR INVERTER POWER RECORDERS end================================================================//

//===================================================================================================================================================================
//																		       Solar end
//===================================================================================================================================================================

//===================================================================================================================================================================
//																		       Wind
//===================================================================================================================================================================


///#set profiler=1;
#set double_format=%+.12lg
#set randomseed=10;
#set relax_naming_rules=1;
module assert;
module generators {
	enable_subsecond_models true;	//Enables deltamode for generator module
	deltamode_timestep 1000.0 ms;	//Desired timestep for the generator module models
}


//================================================================ Wind meters================================================================//

object meter {
	name my_meterw1;
	frequency_measure_type PLL;
	phases ABCN;
	nominal_voltage 230.94;
}

//================================================================ Wind meters end ================================================================//
// turbine
object windturb_dg {
    parent my_meterw1;
    phases ABCN;
    name windturb2_100kW_alt;
    Gen_status ONLINE;
    Gen_type SYNCHRONOUS;
    Gen_mode CONSTANTP;
    Turbine_Model GENERIC_SYNCH_LARGE;
    Rated_V 400;
    
    // Scale the turbine for 100kW output
    turbine_height 80;
    blade_diam 35;
    Cp_max 0.45;
    cut_in_ws 2.5;
    cut_out_ws 25;
    ws_rated 6.1;
}


// over head  lines

object overhead_line {
	name ovl_w11;
	phases "ABCN";
	from my_meterw1;
	to node8;
	length 2000;
	configuration line_config_A;
}

//================================================================ Wind recoders ================================================================//

object recorder {
    parent windturb2_100kW_alt;
    name turb_power_output;
    property voltage_A,voltage_B,voltage_C,current_A,current_B,current_C,power_A.real,power_B.real,power_C.real;
    interval 60; // log every 60 seconds
    file "turbine_power_output.csv";
}

// Voltage output recorder (in volts)
object recorder {
    parent windturb2_100kW_alt;
    name turb_voltage_output;
    property voltage_A,voltage_B,voltage_C,current_A,current_B,current_C,power_A.real,power_B.real,power_C.real;
    interval 60; // log every 60 seconds
    file "turbine_voltage_output.csv";
}

//================================================================ Wind recoders end  ================================================================//

//===================================================================================================================================================================
//																		       Wind end
//===================================================================================================================================================================


//===================================================================================================================================================================
//																		       Battery
//===================================================================================================================================================================

//================================================================ BAttery meters================================================================//
object meter {     
      name batt_m1;     
      phases ABCN;     
      nominal_voltage 230.94;         
}
//================================================================ BAttery meters end================================================================//
///// inverter
object inverter {
    name batt_inv;
    generator_status ONLINE;
    inverter_type FOUR_QUADRANT;
    four_quadrant_control_mode CONSTANT_PQ;
    parent batt_m1;
    rated_power 100000;  // 100kW per phase = 300kW total
    inverter_efficiency .95;

    max_discharge_rate 300.0 kW;
    max_charge_rate 300.0 kW;
    V_base 230.94;
    
     object player {
        property P_Out;
        file charge.csv;
    };
}

object battery {
    name battery_bank;
    parent batt_inv;
    use_internal_battery_model TRUE;
    battery_type LI_ION;
    Energy 1720 kWh;
    nominal_voltage 230.94;  // Match system
    battery_capacity 1720 kWh;
    round_trip_efficiency 0.85;
    state_of_charge 0.3;
    generator_mode CONSTANT_PQ;  // Match inverter
}

object recorder {
    parent battery_bank;
    property state_of_charge;
    interval 60;  // Record every 60 seconds
    file "battery_soc.csv";
}

///// over head lines
object overhead_line {
	name ovl_battery_connector1;
	phases "ABCN";
	from batt_m1;
	to node35;
	length 20;
	configuration line_config_A;
}


object recorder {
    parent batt_m1;
    name batteryrecorder;
    property voltage_A,voltage_B,voltage_C,current_A,current_B,current_C,power_A.real,power_B.real,power_C.real;
    interval 60; // log every 60 seconds
    file "battery.csv";
}

object recorder {
    parent ovl_battery_connector1;
    name batteryrecorder2;
    property current_in_A,current_in_B,current_in_C,power_in_A.real,power_in_B.real,power_in_C.real;
    interval 60; // log every 60 seconds
    file "battery_S1.csv";
}


//===================================================================================================================================================================
//																		       Battery end
//===================================================================================================================================================================


//===================================================================================================================================================================
//																		       Nodes
//===================================================================================================================================================================

// Feeder 01
// Node 01-10

object node {
	name node1;
	phases "ABCN";
	frequency_measure_type PLL;
	nominal_voltage 230.94;
}
object node {
	name node2;
	phases "ABCN";
	frequency_measure_type PLL;
	nominal_voltage 230.94;
}
object node {
	name node3;
	phases "ABCN";
	frequency_measure_type PLL;
	nominal_voltage 230.94;
}
object node {
	name node4;
	phases "ABCN";
	frequency_measure_type PLL;
	nominal_voltage 230.94;
}

object node {
	name node5;
	phases "ABCN";
	frequency_measure_type PLL;
	nominal_voltage 230.94;
}

object node {
	name node6;
	phases "ABCN";
	frequency_measure_type PLL;
	nominal_voltage 230.94;
}

object node {
	name node7;
	phases "ABCN";
	frequency_measure_type PLL;
	nominal_voltage 230.94;
}

object node {
	name node8;
	phases "ABCN";
	frequency_measure_type PLL;
	nominal_voltage 230.94;
}

object node {
	name node9;
	phases "ABCN";
	frequency_measure_type PLL;
	nominal_voltage 230.94;
}

object node {
	name node10;
	phases "ABCN";
	frequency_measure_type PLL;
	nominal_voltage 230.94;
}
// node 11-20
object node {
	name node11;
	phases "ABCN";
	frequency_measure_type PLL;
	nominal_voltage 230.94;
}

object node {
	name node12;
	phases "ABCN";
	frequency_measure_type PLL;
	nominal_voltage 230.94;
}

object node {
	name node13;
	phases "ABCN";
	frequency_measure_type PLL;
	nominal_voltage 230.94;
}

object node {
	name node14;
	phases "ABCN";
	frequency_measure_type PLL;
	nominal_voltage 230.94;
}

object node {
	name node15;
	phases "ABCN";
	frequency_measure_type PLL;
	nominal_voltage 230.94;
}

object node {
	name node16;
	phases "ABCN";
	frequency_measure_type PLL;
	nominal_voltage 230.94;
}

object node {
	name node17;
	phases "ABCN";
	frequency_measure_type PLL;
	nominal_voltage 230.94;
}

object node {
	name node18;
	phases "ABCN";
	frequency_measure_type PLL;
	nominal_voltage 230.94;
}

object node {
	name node19;
	phases "ABCN";
	frequency_measure_type PLL;
	nominal_voltage 230.94;
}

object node {
	name node20;
	phases "ABCN";
	frequency_measure_type PLL;
	nominal_voltage 230.94;
	object recorder {      
		flags DELTAMODE;	//Must explicitly set the recorder to do deltamode
		file NODE_20_CRITICAL_NODE_Data.csv;
		interval 60;			//Changed to 1, otherwise it won't record anything interesting in deltamode
		property voltage_A,voltage_B,voltage_C;
	}; 
}
// node 21-30
object node {
	name node21;
	phases "ABCN";
	frequency_measure_type PLL;
	nominal_voltage 230.94;
}

object node {
	name node22;
	phases "ABCN";
	frequency_measure_type PLL;
	nominal_voltage 230.94;
}

object node {
	name node23;
	phases "ABCN";
	frequency_measure_type PLL;
	nominal_voltage 230.94;
}

object node {
	name node24;
	phases "ABCN";
	frequency_measure_type PLL;
	nominal_voltage 230.94;
}

object node {
	name node25;
	phases "ABCN";
	frequency_measure_type PLL;
	nominal_voltage 230.94;
}

object node {
	name node26;
	phases "ABCN";
	frequency_measure_type PLL;
	nominal_voltage 230.94;
}

object node {
	name node27;
	phases "ABCN";
	frequency_measure_type PLL;
	nominal_voltage 230.94;
}

object node {
	name node28;
	phases "ABCN";
	frequency_measure_type PLL;
	nominal_voltage 230.94;
}

object node {
	name node29;
	phases "ABCN";
	frequency_measure_type PLL;
	nominal_voltage 230.94;
}

object node {
	name node30;
	phases "ABCN";
	frequency_measure_type PLL;
	nominal_voltage 230.94;
}
// node 31-34
object node {
	name node31;
	phases "ABCN";
	frequency_measure_type PLL;
	nominal_voltage 230.94;
}

object node {
	name node32;
	phases "ABCN";
	frequency_measure_type PLL;
	nominal_voltage 230.94;
}

object node {
	name node33;
	phases "ABCN";
	frequency_measure_type PLL;
	nominal_voltage 230.94;
}

object node {
	name node34;
	phases "ABCN";
	frequency_measure_type PLL;
	nominal_voltage 230.94;
}


// Feeder 02

//Node 35-45

object node {
	name node35;
    phases "ABCN";
    frequency_measure_type PLL;
    nominal_voltage 230.94;
}

object node {
    name node36;
    phases "ABCN";
    frequency_measure_type PLL;
    nominal_voltage 230.94;
}

object node {
    name node37;
    phases "ABCN";
    frequency_measure_type PLL;
    nominal_voltage 230.94;
}

object node {
    name node38;
    phases "ABCN";
	frequency_measure_type PLL;
    nominal_voltage 230.94;
}

object node {
    name node39;
    phases "ABCN";
    frequency_measure_type PLL;
    nominal_voltage 230.94;
}

object node {
    name node40;
    phases "ABCN";
	frequency_measure_type PLL;
    nominal_voltage 230.94;
}

object node {
    name node41;
    phases "ABCN";
    frequency_measure_type PLL;
    nominal_voltage 230.94;
}

object node {
    name node42;
    phases "ABCN";
    frequency_measure_type PLL;
    nominal_voltage 230.94;
}

object node {
    name node43;
    phases "ABCN";
	frequency_measure_type PLL;
    nominal_voltage 230.94;
}

object node {
    name node44;
    phases "ABCN";
	frequency_measure_type PLL;
    nominal_voltage 230.94;
}

object node {
    name node45;
    phases "ABCN";
    frequency_measure_type PLL;
    nominal_voltage 230.94;
}

//Node 46-55

object node {
    name node46;
    phases "ABCN";
    frequency_measure_type PLL;
    nominal_voltage 230.94;
}

object node {
    name node47;
    phases "ABCN";
    frequency_measure_type PLL;
    nominal_voltage 230.94;
}


object node {
    name node48;
    phases "ABCN";
    frequency_measure_type PLL;
    nominal_voltage 230.94;
}

object node {
    name node49;
    phases "ABCN";
	frequency_measure_type PLL;
    nominal_voltage 230.94;
}

object node {
    name node50;
    phases "ABCN";
	frequency_measure_type PLL;
    nominal_voltage 230.94;
}

object node {
    name node51;
    phases "ABCN";
	frequency_measure_type PLL;
    nominal_voltage 230.94;
}

object node {
    name node52;
    phases "ABCN";
	frequency_measure_type PLL;
    nominal_voltage 230.94;
	object recorder {      
		flags DELTAMODE;	//Must explicitly set the recorder to do deltamode
		file NODE_52_CRITICAL_NODE_Data.csv;
		interval 60;			//Changed to 1, otherwise it won't record anything interesting in deltamode
		property voltage_A,voltage_B,voltage_C;
	}; 
}

object node {
    name node53;
    phases "ABCN";
	frequency_measure_type PLL;
    nominal_voltage 230.94;
}

object node {
    name node54;
    phases "ABCN";
	frequency_measure_type PLL;
    nominal_voltage 230.94;
}

object node {
    name node55;
    phases "ABCN";
	frequency_measure_type PLL;
    nominal_voltage 230.94;
}

//Node 55-62

object node {
    name node56;
    phases "ABCN";
	frequency_measure_type PLL;
    nominal_voltage 230.94;
}

object node {
    name node57;
    phases "ABCN";
    frequency_measure_type PLL;
    nominal_voltage 230.94;
}

object node {
    name node58;
    phases "ABCN";
	frequency_measure_type PLL;
    nominal_voltage 230.94;
}

object node {
    name node59;
    phases "ABCN";
	frequency_measure_type PLL;
    nominal_voltage 230.94;
}

object node {
    name node60;
    phases "ABCN";
	frequency_measure_type PLL;
    nominal_voltage 230.94;
}

object node {
    name node61;
    phases "ABCN";
	frequency_measure_type PLL;
    nominal_voltage 230.94;
}

object node {
    name node62;
    phases "ABCN";
	frequency_measure_type PLL;
    nominal_voltage 230.94;
}


// Feeder 03


object node {
    name node63;
    phases "ABCN";
    frequency_measure_type PLL;
    nominal_voltage 230.94;
    
}
object node {
    name node64;
    phases "ABCN";
    frequency_measure_type PLL;
    nominal_voltage 230.94;
    
}
object node {
    name node65;
    phases "ABCN";
    frequency_measure_type PLL;
    nominal_voltage 230.94;
    
}
object node {
    name node66;
    phases "ABCN";
    frequency_measure_type PLL;
    nominal_voltage 230.94;
    
}
object node {
    name node67;
    phases "ABCN";    
    frequency_measure_type PLL;
	nominal_voltage 230.94;
    
}
object node {
    name node68;
    phases "ABCN";
    frequency_measure_type PLL;
    nominal_voltage 230.94;
    
}
object node {
    name node69;
    phases "ABCN";
    frequency_measure_type PLL;
    nominal_voltage 230.94;
    
}
object node {
    name node70;
    phases "ABCN";    
    frequency_measure_type PLL;
    nominal_voltage 230.94;
    
}
object node {
    name node71;
    phases "ABCN";   
    frequency_measure_type PLL;
    nominal_voltage 230.94;
    
}
object node {
    name node72;
    phases "ABCN";   
    frequency_measure_type PLL;
    nominal_voltage 230.94;
    
}
object node {
    name node73;
    phases "ABCN";
    frequency_measure_type PLL;
	nominal_voltage 230.94;
    
}
object node {
    name node74;
    phases "ABCN";  
    frequency_measure_type PLL;
    nominal_voltage 230.94;
    
}
object node {
    name node75;
    phases "ABCN";   
    frequency_measure_type PLL;
    nominal_voltage 230.94;
    
}
object node {
    name node76;
    phases "ABCN";    
    frequency_measure_type PLL;
    nominal_voltage 230.94;
    
}
object node {
    name node77;
    phases "ABCN";   
    frequency_measure_type PLL;
    nominal_voltage 230.94;
    
}
object node {
    name node78;
    phases "ABCN";   
    frequency_measure_type PLL;
    nominal_voltage 230.94;
    
}
object node {
    name node79;
    phases "ABCN";   
    frequency_measure_type PLL;
    nominal_voltage 230.94;
    
}
object node {
    name node80;
    phases "ABCN";   
    frequency_measure_type PLL;
    nominal_voltage 230.94;
    
}
object node {
    name node81;
    phases "ABCN";   
    frequency_measure_type PLL;
    nominal_voltage 230.94;
    
}
object node {
    name node82;
    phases "ABCN";   
    frequency_measure_type PLL;
    nominal_voltage 230.94;
	object recorder {      
		flags DELTAMODE;	//Must explicitly set the recorder to do deltamode
		file NODE_82_CRITICAL_NODE_Data.csv;
		interval 60;			//Changed to 1, otherwise it won't record anything interesting in deltamode
		property voltage_A,voltage_B,voltage_C;
	}; 
    
}
object node {
    name node83;
    phases "ABCN";   
    frequency_measure_type PLL;
    nominal_voltage 230.94;
    
}
object node {
    name node84;
    phases "ABCN";  
    frequency_measure_type PLL;
    nominal_voltage 230.94;
    
}
object node {
    name node85;
    phases "ABCN";   
    frequency_measure_type PLL;
    nominal_voltage 230.94;
    
}
object node {
    name node86;
    phases "ABCN";   
    frequency_measure_type PLL;
    nominal_voltage 230.94;

	object recorder {      
		flags DELTAMODE;	//Must explicitly set the recorder to do deltamode
		file NODE_86_CRITICAL_NODE_Data.csv;
		interval 60;			//Changed to 1, otherwise it won't record anything interesting in deltamode
		property voltage_A,voltage_B,voltage_C;
	}; 
    
}
object node {
    name node87;
    phases "ABCN";
    frequency_measure_type PLL;
    nominal_voltage 230.94;
    
}
object node {
    name node88;
    phases "ABCN";
    frequency_measure_type PLL;
    nominal_voltage 230.94;
    
}
object node {
    name node89;
    phases "ABCN";
    frequency_measure_type PLL;
    nominal_voltage 230.94;
    
}
object node {
    name node90;
    phases "ABCN";
    frequency_measure_type PLL;
    nominal_voltage 230.94;
    
}
object node {
    name node91;
    phases "ABCN";
    frequency_measure_type PLL;
    nominal_voltage 230.94;
    
}
object node {
    name node92;
    phases "ABCN";
    frequency_measure_type PLL;
    nominal_voltage 230.94;
    
}
object node {
    name node93;
    phases "ABCN";
    frequency_measure_type PLL;
    nominal_voltage 230.94;
    
}
object node {
    name node94;
    phases "ABCN";
    frequency_measure_type PLL;
    nominal_voltage 230.94;
    
}
object node {
    name node95;
    phases "ABCN";
    frequency_measure_type PLL;
    nominal_voltage 230.94;
    
}
object node {
    name node96;
    phases "ABCN";
    frequency_measure_type PLL;
    nominal_voltage 230.94;
    
}
object node {
    name node97;
    phases "ABCN";
    frequency_measure_type PLL;
    nominal_voltage 230.94;
    
}
object node {
    name node98;
    phases "ABCN";
    frequency_measure_type PLL;
    nominal_voltage 230.94;
    
}
object node {
    name node99;
    phases "ABCN";
    frequency_measure_type PLL;
    nominal_voltage 230.94;
    
}
object node {
    name node100;
    phases "ABCN";
    frequency_measure_type PLL;
    nominal_voltage 230.94;
    
}
object node {
    name node101;
    phases "ABCN";
    frequency_measure_type PLL;
    nominal_voltage 230.94;
    
}
object node {
    name node102;
    phases "ABCN";
    frequency_measure_type PLL;
    nominal_voltage 230.94;
    
}
object node {
    name node103;
    phases "ABCN";
    frequency_measure_type PLL;
    nominal_voltage 230.94;
    
}
object node {
    name node104;
    phases "ABCN";
    frequency_measure_type PLL;
    nominal_voltage 230.94;
    
}
object node {
    name node105;
    phases "ABCN";
    frequency_measure_type PLL;
    nominal_voltage 230.94;
    
}
object node {
    name node106;
    phases "ABCN";
    frequency_measure_type PLL;
    nominal_voltage 230.94;
    
}
object node {
    name node107;
    phases "ABCN";
    frequency_measure_type PLL;
    nominal_voltage 230.94;
    
}
object node {
    name node108;
    phases "ABCN";
    frequency_measure_type PLL;
    nominal_voltage 230.94;
    
}
object node {
    name node109;
    phases "ABCN";
    frequency_measure_type PLL;
    nominal_voltage 230.94;
    
}
object node {
    name node110;
    phases "ABCN";
    frequency_measure_type PLL;
    nominal_voltage 230.94;
    
}
object node {
    name node111;
    phases "ABCN";
    frequency_measure_type PLL;
    nominal_voltage 230.94;
    
}
object node {
    name node112;
    phases "ABCN";
    frequency_measure_type PLL;
	nominal_voltage 230.94;
    
}
object node {
    name node113;
    phases "ABCN";
    frequency_measure_type PLL;
    nominal_voltage 230.94;
    
}


//===================================================================================================================================================================
//																		       Nodes end
//===================================================================================================================================================================




//===================================================================================================================================================================
//																		       Load Files
//===================================================================================================================================================================

// feeder 01 loads

// Load 2
object load {
    name LOAD_2; 	// name of Load
    parent node2; // parent node eka
    phases ABC;
	frequency_measure_type PLL;	//Have to enable the frequency measurement behavior
    nominal_voltage 230.94;   
	//Add some players, otherwise this doesn't really do anything
	object player {
		flags DELTAMODE;
		property constant_power_A;
		file LOAD_02_A.csv; //Scv file name phase A
	};
} 
// Load 4
object load {
    name LOAD_4; 	// name of Load
    parent node4; // parent node eka
    phases ABC;
	frequency_measure_type PLL;	//Have to enable the frequency measurement behavior
    nominal_voltage 230.94;   
	//Add some players, otherwise this doesn't really do anything
	object player {
		flags DELTAMODE;
		property constant_power_A;
		file LOAD_04_A.csv; //Scv file name phase A
	};
	object player {
		flags DELTAMODE;
		property constant_power_B;
		file LOAD_04_B.csv; //Scv file name phase B
	};
	object player {
		flags DELTAMODE;
		property constant_power_C;
		file LOAD_04_C.csv; //Scv file name phase C
	};
} 
// Load 5
object load {
    name LOAD_5; 	// name of Load
    parent node5; // parent node eka
    phases ABC;
	frequency_measure_type PLL;	//Have to enable the frequency measurement behavior
    nominal_voltage 230.94;   
	//Add some players, otherwise this doesn't really do anything
	object player {
		flags DELTAMODE;
		property constant_power_C;
		file LOAD_05_C.csv; //Scv file name phase C
	};
} 
// Load 6
object load {
    name LOAD_6; 	// name of Load
    parent node6; // parent node eka
    phases ABC;
	frequency_measure_type PLL;	//Have to enable the frequency measurement behavior
    nominal_voltage 230.94;   
	//Add some players, otherwise this doesn't really do anything
	object player {
		flags DELTAMODE;
		property constant_power_C;
		file LOAD_06_C.csv; //Scv file name phase C
	};
} 
// Load 7
object load {
    name LOAD_7; 	// name of Load
    parent node7; // parent node eka
    phases ABC;
	frequency_measure_type PLL;	//Have to enable the frequency measurement behavior
    nominal_voltage 230.94;   
	//Add some players, otherwise this doesn't really do anything
	object player {
		flags DELTAMODE;
		property constant_power_A;
		file LOAD_07_A.csv; //Scv file name phase A
	};
	object player {
		flags DELTAMODE;
		property constant_power_B;
		file LOAD_07_B.csv; //Scv file name phase B
	};
	object player {
		flags DELTAMODE;
		property constant_power_C;
		file LOAD_07_C.csv; //Scv file name phase C
	};
} 
// Load 9
object load {
    name LOAD_9; 	// name of Load
    parent node9; // parent node eka
    phases ABC;
	frequency_measure_type PLL;	//Have to enable the frequency measurement behavior
    nominal_voltage 230.94;   
	//Add some players, otherwise this doesn't really do anything
	object player {
		flags DELTAMODE;
		property constant_power_A;
		file LOAD_09_A.csv; //Scv file name phase A
	};
	object player {
		flags DELTAMODE;
		property constant_power_B;
		file LOAD_09_B.csv; //Scv file name phase B
	};
	object player {
		flags DELTAMODE;
		property constant_power_C;
		file LOAD_09_C.csv; //Scv file name phase C
	};
}
// Load 10
object load {
    name LOAD_10; 	// name of Load
    parent node10; // parent node eka
    phases ABC;
	frequency_measure_type PLL;	//Have to enable the frequency measurement behavior
    nominal_voltage 230.94;   
	//Add some players, otherwise this doesn't really do anything
	object player {
		flags DELTAMODE;
		property constant_power_A;
		file LOAD_10_A.csv; //Scv file name phase A
	};
	object player {
		flags DELTAMODE;
		property constant_power_B;
		file LOAD_10_B.csv; //Scv file name phase B
	};
	object player {
		flags DELTAMODE;
		property constant_power_C;
		file LOAD_10_C.csv; //Scv file name phase C
	};
}
// Load 11
object load {
    name LOAD_11; 	// name of Load
    parent node11; // parent node eka
    phases ABC;
	frequency_measure_type PLL;	//Have to enable the frequency measurement behavior
    nominal_voltage 230.94;   
	//Add some players, otherwise this doesn't really do anything
	object player {
		flags DELTAMODE;
		property constant_power_C;
		file LOAD_11_C.csv; //Scv file name phase C
	};
}
// Load 12
object load {
    name LOAD_12; 	// name of Load
    parent node12; // parent node eka
    phases ABC;
	frequency_measure_type PLL;	//Have to enable the frequency measurement behavior
    nominal_voltage 230.94;   
	//Add some players, otherwise this doesn't really do anything
	object player {
		flags DELTAMODE;
		property constant_power_A;
		file LOAD_12_A.csv; //Scv file name phase A
	};
}
// Load 13
object load {
    name LOAD_13; 	// name of Load
    parent node13; // parent node eka
    phases ABC;
	frequency_measure_type PLL;	//Have to enable the frequency measurement behavior
    nominal_voltage 230.94;   
	//Add some players, otherwise this doesn't really do anything
	object player {
		flags DELTAMODE;
		property constant_power_A;
		file LOAD_13_A.csv; //Scv file name phase A
	};
	object player {
		flags DELTAMODE;
		property constant_power_B;
		file LOAD_13_B.csv; //Scv file name phase B
	};
	object player {
		flags DELTAMODE;
		property constant_power_C;
		file LOAD_13_C.csv; //Scv file name phase C
	};
}
// Load 14
object load {
    name LOAD_14; 	// name of Load
    parent node14; // parent node eka
    phases ABC;
	frequency_measure_type PLL;	//Have to enable the frequency measurement behavior
    nominal_voltage 230.94;   
	//Add some players, otherwise this doesn't really do anything
	object player {
		flags DELTAMODE;
		property constant_power_A;
		file LOAD_14_A.csv; //Scv file name phase A
	};
	object player {
		flags DELTAMODE;
		property constant_power_B;
		file LOAD_14_B.csv; //Scv file name phase B
	};
	object player {
		flags DELTAMODE;
		property constant_power_C;
		file LOAD_14_C.csv; //Scv file name phase C
	};
}
// Load 15
object load {
    name LOAD_15; 	// name of Load
    parent node15; // parent node eka
    phases ABC;
	frequency_measure_type PLL;	//Have to enable the frequency measurement behavior
    nominal_voltage 230.94;   
	//Add some players, otherwise this doesn't really do anything
	object player {
		flags DELTAMODE;
		property constant_power_A;
		file LOAD_15_A.csv; //Scv file name phase A
	};
}
// Load 16
object load {
    name LOAD_16; 	// name of Load
    parent node16; // parent node eka
    phases ABC;
	frequency_measure_type PLL;	//Have to enable the frequency measurement behavior
    nominal_voltage 230.94;   
	//Add some players, otherwise this doesn't really do anything
	object player {
		flags DELTAMODE;
		property constant_power_A;
		file LOAD_16_A.csv; //Scv file name phase A
	};
	object player {
		flags DELTAMODE;
		property constant_power_B;
		file LOAD_16_B.csv; //Scv file name phase B
	};
	object player {
		flags DELTAMODE;
		property constant_power_C;
		file LOAD_16_C.csv; //Scv file name phase C
	};
}
// Load 17
object load {
    name LOAD_17; 	// name of Load
    parent node17; // parent node eka
    phases ABC;
	frequency_measure_type PLL;	//Have to enable the frequency measurement behavior
    nominal_voltage 230.94;   
	//Add some players, otherwise this doesn't really do anything
	object player {
		flags DELTAMODE;
		property constant_power_C;
		file LOAD_17_C.csv; //Scv file name phase C
	};
}
// Load 18
object load {
    name LOAD_18; 	// name of Load
    parent node18; // parent node eka
    phases ABC;
	frequency_measure_type PLL;	//Have to enable the frequency measurement behavior
    nominal_voltage 230.94;   
	//Add some players, otherwise this doesn't really do anything
	object player {
		flags DELTAMODE;
		property constant_power_A;
		file LOAD_18_A.csv; //Scv file name phase A
	};
}
// Load 19
object load {
    name LOAD_19; 	// name of Load
    parent node19; // parent node eka
    phases ABC;
	frequency_measure_type PLL;	//Have to enable the frequency measurement behavior
    nominal_voltage 230.94;   
	//Add some players, otherwise this doesn't really do anything
	object player {
		flags DELTAMODE;
		property constant_power_A;
		file LOAD_19_A.csv; //Scv file name phase A
	};
	object player {
		flags DELTAMODE;
		property constant_power_B;
		file LOAD_19_B.csv; //Scv file name phase B
	};
	object player {
		flags DELTAMODE;
		property constant_power_C;
		file LOAD_19_C.csv; //Scv file name phase C
	};
}
// Load 22
object load {
    name LOAD_22; 	// name of Load
    parent node22; // parent node eka
    phases ABC;
	frequency_measure_type PLL;	//Have to enable the frequency measurement behavior
    nominal_voltage 230.94;   
	//Add some players, otherwise this doesn't really do anything
	object player {
		flags DELTAMODE;
		property constant_power_A;
		file LOAD_22_A.csv; //Scv file name phase A
	};
	object player {
		flags DELTAMODE;
		property constant_power_B;
		file LOAD_22_B.csv; //Scv file name phase B
	};
	object player {
		flags DELTAMODE;
		property constant_power_C;
		file LOAD_22_C.csv; //Scv file name phase C
	};
}
// Load 23
object load {
    name LOAD_23; 	// name of Load
    parent node23; // parent node eka
    phases ABC;
	frequency_measure_type PLL;	//Have to enable the frequency measurement behavior
    nominal_voltage 230.94;   
	//Add some players, otherwise this doesn't really do anything
	object player {
		flags DELTAMODE;
		property constant_power_C;
		file LOAD_23_C.csv; //Scv file name phase C
	};
}
// Load 24
object load {
    name LOAD_24; 	// name of Load
    parent node24; // parent node eka
    phases ABC;
	frequency_measure_type PLL;	//Have to enable the frequency measurement behavior
    nominal_voltage 230.94;   
	//Add some players, otherwise this doesn't really do anything
	object player {
		flags DELTAMODE;
		property constant_power_C;
		file LOAD_24_C.csv; //Scv file name phase C
	};
}
// Load 25
object load {
    name LOAD_25; 	// name of Load
    parent node25; // parent node eka
    phases ABC;
	frequency_measure_type PLL;	//Have to enable the frequency measurement behavior
    nominal_voltage 230.94;   
	//Add some players, otherwise this doesn't really do anything
	object player {
		flags DELTAMODE;
		property constant_power_A;
		file LOAD_25_A.csv; //Scv file name phase A
	};
	object player {
		flags DELTAMODE;
		property constant_power_B;
		file LOAD_25_B.csv; //Scv file name phase B
	};
	object player {
		flags DELTAMODE;
		property constant_power_C;
		file LOAD_25_C.csv; //Scv file name phase C
	};
}
// Load 26
object load {
    name LOAD_26; 	// name of Load
    parent node26; // parent node eka
    phases ABC;
	frequency_measure_type PLL;	//Have to enable the frequency measurement behavior
    nominal_voltage 230.94;   
	//Add some players, otherwise this doesn't really do anything
	object player {
		flags DELTAMODE;
		property constant_power_A;
		file LOAD_26_A.csv; //Scv file name phase A
	};
	object player {
		flags DELTAMODE;
		property constant_power_B;
		file LOAD_26_B.csv; //Scv file name phase B
	};
	object player {
		flags DELTAMODE;
		property constant_power_C;
		file LOAD_26_C.csv; //Scv file name phase C
	};
}
// Load 27
object load {
    name LOAD_27; 	// name of Load
    parent node27; // parent node eka
    phases ABC;
	frequency_measure_type PLL;	//Have to enable the frequency measurement behavior
    nominal_voltage 230.94;   
	//Add some players, otherwise this doesn't really do anything
	object player {
		flags DELTAMODE;
		property constant_power_A;
		file LOAD_27_A.csv; //Scv file name phase A
	};
	object player {
		flags DELTAMODE;
		property constant_power_B;
		file LOAD_27_B.csv; //Scv file name phase B
	};
	object player {
		flags DELTAMODE;
		property constant_power_C;
		file LOAD_27_C.csv; //Scv file name phase C
	};
}
// Load 29
object load {
    name LOAD_29; 	// name of Load
    parent node29; // parent node eka
    phases ABC;
	frequency_measure_type PLL;	//Have to enable the frequency measurement behavior
    nominal_voltage 230.94;   
	//Add some players, otherwise this doesn't really do anything
	object player {
		flags DELTAMODE;
		property constant_power_A;
		file LOAD_29_A.csv; //Scv file name phase A
	};
	object player {
		flags DELTAMODE;
		property constant_power_B;
		file LOAD_29_B.csv; //Scv file name phase B
	};
	object player {
		flags DELTAMODE;
		property constant_power_C;
		file LOAD_29_C.csv; //Scv file name phase C
	};
}
// Load 30
object load {
    name LOAD_30; 	// name of Load
    parent node30; // parent node eka
    phases ABC;
	frequency_measure_type PLL;	//Have to enable the frequency measurement behavior
    nominal_voltage 230.94;   
	//Add some players, otherwise this doesn't really do anything
	object player {
		flags DELTAMODE;
		property constant_power_B;
		file LOAD_30_B.csv; //Scv file name phase B
	};
}
// Load 31
object load {
    name LOAD_31; 	// name of Load
    parent node31; // parent node eka
    phases ABC;
	frequency_measure_type PLL;	//Have to enable the frequency measurement behavior
    nominal_voltage 230.94;   
	//Add some players, otherwise this doesn't really do anything
	object player {
		flags DELTAMODE;
		property constant_power_A;
		file LOAD_31_A.csv; //Scv file name phase A
	};
	object player {
		flags DELTAMODE;
		property constant_power_B;
		file LOAD_31_B.csv; //Scv file name phase B
	};
	object player {
		flags DELTAMODE;
		property constant_power_C;
		file LOAD_31_C.csv; //Scv file name phase C
	};
}
// Load 32
object load {
    name LOAD_32; 	// name of Load
    parent node32; // parent node eka
    phases ABC;
	frequency_measure_type PLL;	//Have to enable the frequency measurement behavior
    nominal_voltage 230.94;   
	//Add some players, otherwise this doesn't really do anything
	object player {
		flags DELTAMODE;
		property constant_power_C;
		file LOAD_32_C.csv; //Scv file name phase C
	};
}
// Load 33
object load {
    name LOAD_33; 	// name of Load
    parent node33; // parent node eka
    phases ABC;
	frequency_measure_type PLL;	//Have to enable the frequency measurement behavior
    nominal_voltage 230.94;   
	//Add some players, otherwise this doesn't really do anything
	object player {
		flags DELTAMODE;
		property constant_power_A;
		file LOAD_33_A.csv; //Scv file name phase A
	};
	object player {
		flags DELTAMODE;
		property constant_power_B;
		file LOAD_33_B.csv; //Scv file name phase B
	};
	object player {
		flags DELTAMODE;
		property constant_power_C;
		file LOAD_33_C.csv; //Scv file name phase C
	};
}
// Load 34
object load {
    name LOAD_34; 	// name of Load
    parent node34; // parent node eka
    phases ABC;
	frequency_measure_type PLL;	//Have to enable the frequency measurement behavior
    nominal_voltage 230.94;   
	//Add some players, otherwise this doesn't really do anything
	object player {
		flags DELTAMODE;
		property constant_power_A;
		file LOAD_34_A.csv; //Scv file name phase A
	};
	object player {
		flags DELTAMODE;
		property constant_power_B;
		file LOAD_34_B.csv; //Scv file name phase B
	};
	object player {
		flags DELTAMODE;
		property constant_power_C;
		file LOAD_34_C.csv; //Scv file name phase C
	};
}


// Feeder 02 loads

object load {
    name LOAD_36; 	// name of Load
    parent node36; // parent node eka
    phases ABCN;
	frequency_measure_type PLL;	//Have to enable the frequency measurement behavior
    nominal_voltage 230.94;   
	//Add some players, otherwise this doesn't really do anything
	object player {
		flags DELTAMODE;
		property constant_power_A;
		file LOAD_36_A.csv; //Scv file name phase A
	};

	object player {
		flags DELTAMODE;
		property constant_power_B;
		file LOAD_36_B.csv; //Scv file name phase A
	};

	object player {
		flags DELTAMODE;
		property constant_power_C;
		file LOAD_36_C.csv; //Scv file name phase A
	};
} 

object load {
    name LOAD_37; 	// name of Load
    parent node37; // parent node eka
    phases ABCN;
	frequency_measure_type PLL;	//Have to enable the frequency measurement behavior
    nominal_voltage 230.94;   
	//Add some players, otherwise this doesn't really do anything

	object player {
		flags DELTAMODE;
		property constant_power_C;
		file LOAD_37_C.csv; //Scv file name phase C
	};
} 

object load {
    name LOAD_38; 	// name of Load
    parent node38; // parent node eka
    phases ABCN;
	frequency_measure_type PLL;	//Have to enable the frequency measurement behavior
    nominal_voltage 230.94;   
	//Add some players, otherwise this doesn't really do anything
	object player {
		flags DELTAMODE;
		property constant_power_A;
		file LOAD_38_A.csv; //Scv file name phase A
	};
} 

object load {
    name LOAD_39; 	// name of Load
    parent node39; // parent node eka
    phases ABCN;
	frequency_measure_type PLL;	//Have to enable the frequency measurement behavior
    nominal_voltage 230.94;   
	//Add some players, otherwise this doesn't really do anything
	object player {
		flags DELTAMODE;
		property constant_power_A;
		file LOAD_39_A.csv; //Scv file name phase A
	};
	object player {
		flags DELTAMODE;
		property constant_power_B;
		file LOAD_39_B.csv; //Scv file name phase B
	};
	object player {
		flags DELTAMODE;
		property constant_power_C;
		file LOAD_39_C.csv; //Scv file name phase C
	};
} 

object load {
    name LOAD_40; 	// name of Load
    parent node40; // parent node eka
    phases ABCN;
	frequency_measure_type PLL;	//Have to enable the frequency measurement behavior
    nominal_voltage 230.94;   
	//Add some players, otherwise this doesn't really do anything
	object player {
		flags DELTAMODE;
		property constant_power_B;
		file LOAD_40_B.csv; //Scv file name phase B
	};
} 

object load {
    name LOAD_42; 	// name of Load
    parent node42; // parent node eka
    phases ABCN;
	frequency_measure_type PLL;	//Have to enable the frequency measurement behavior
    nominal_voltage 230.94;   
	//Add some players, otherwise this doesn't really do anything
	object player {
		flags DELTAMODE;
		property constant_power_A;
		file LOAD_42_A.csv; //Scv file name phase A
	};
	object player {
		flags DELTAMODE;
		property constant_power_B;
		file LOAD_42_B.csv; //Scv file name phase B
	};
	object player {
		flags DELTAMODE;
		property constant_power_C;
		file LOAD_42_C.csv; //Scv file name phase C
	};
}

object load {
    name LOAD_43; 	// name of Load
    parent node43; // parent node eka
    phases ABCN;
	frequency_measure_type PLL;	//Have to enable the frequency measurement behavior
    nominal_voltage 230.94;   
	//Add some players, otherwise this doesn't really do anything
	object player {
		flags DELTAMODE;
		property constant_power_A;
		file LOAD_43_A.csv; //Scv file name phase A
	};
	object player {
		flags DELTAMODE;
		property constant_power_B;
		file LOAD_43_B.csv; //Scv file name phase B
	};
	object player {
		flags DELTAMODE;
		property constant_power_C;
		file LOAD_43_C.csv; //Scv file name phase C
	};
}

object load {
    name LOAD_44; 	// name of Load
    parent node44; // parent node eka
    phases ABCN;
	frequency_measure_type PLL;	//Have to enable the frequency measurement behavior
    nominal_voltage 230.94;   
	//Add some players, otherwise this doesn't really do anything
	object player {
		flags DELTAMODE;
		property constant_power_A;
		file LOAD_44_A.csv; //Scv file name phase A
	};
	object player {
		flags DELTAMODE;
		property constant_power_B;
		file LOAD_44_B.csv; //Scv file name phase B
	};
	object player {
		flags DELTAMODE;
		property constant_power_C;
		file LOAD_44_C.csv; //Scv file name phase C
	};
}


object load {
    name LOAD_46; 	// name of Load
    parent node46; // parent node eka
    phases ABCN;
	frequency_measure_type PLL;	//Have to enable the frequency measurement behavior
    nominal_voltage 230.94;   
	//Add some players, otherwise this doesn't really do anything
	object player {
		flags DELTAMODE;
		property constant_power_A;
		file LOAD_46_A.csv; //Scv file name phase A
	};
	object player {
		flags DELTAMODE;
		property constant_power_B;
		file LOAD_46_B.csv; //Scv file name phase B
	};
	object player {
		flags DELTAMODE;
		property constant_power_C;
		file LOAD_46_C.csv; //Scv file name phase C
	};
}

object load {
    name LOAD_47; 	// name of Load
    parent node47; // parent node eka
    phases ABCN;
	frequency_measure_type PLL;	//Have to enable the frequency measurement behavior
    nominal_voltage 230.94;   
	//Add some players, otherwise this doesn't really do anything
	object player {
		flags DELTAMODE;
		property constant_power_A;
		file LOAD_47_A.csv; //Scv file name phase A
	};
	object player {
		flags DELTAMODE;
		property constant_power_B;
		file LOAD_47_B.csv; //Scv file name phase B
	};
	object player {
		flags DELTAMODE;
		property constant_power_C;
		file LOAD_47_C.csv; //Scv file name phase C
	};
}

object load {
    name LOAD_49; 	// name of Load
    parent node49; // parent node eka
    phases ABCN;
	frequency_measure_type PLL;	//Have to enable the frequency measurement behavior
    nominal_voltage 230.94;   
	//Add some players, otherwise this doesn't really do anything
	object player {
		flags DELTAMODE;
		property constant_power_A;
		file LOAD_49_A.csv; //Scv file name phase A
	};
	object player {
		flags DELTAMODE;
		property constant_power_B;
		file LOAD_49_B.csv; //Scv file name phase B
	};
	object player {
		flags DELTAMODE;
		property constant_power_C;
		file LOAD_49_C.csv; //Scv file name phase C
	};
}

object load {
    name LOAD_50; 	// name of Load
    parent node50; // parent node eka
    phases ABCN;
	frequency_measure_type PLL;	//Have to enable the frequency measurement behavior
    nominal_voltage 230.94;   
	//Add some players, otherwise this doesn't really do anything
	object player {
		flags DELTAMODE;
		property constant_power_B;
		file LOAD_50_B.csv; //Scv file name phase B
	};
}

object load {
    name LOAD_51; 	// name of Load
    parent node51; // parent node eka
    phases ABCN;
	frequency_measure_type PLL;	//Have to enable the frequency measurement behavior
    nominal_voltage 230.94;   
	//Add some players, otherwise this doesn't really do anything
	object player {
		flags DELTAMODE;
		property constant_power_A;
		file LOAD_51_A.csv; //Scv file name phase A
	};
	object player {
		flags DELTAMODE;
		property constant_power_B;
		file LOAD_51_B.csv; //Scv file name phase B
	};
	object player {
		flags DELTAMODE;
		property constant_power_C;
		file LOAD_51_C.csv; //Scv file name phase C
	};
}

object load {
    name LOAD_53; 	// name of Load
    parent node53; // parent node eka
    phases ABCN;
	frequency_measure_type PLL;	//Have to enable the frequency measurement behavior
    nominal_voltage 230.94;   
	//Add some players, otherwise this doesn't really do anything
	object player {
		flags DELTAMODE;
		property constant_power_A;
		file LOAD_53_A.csv; //Scv file name phase C
	};
}

object load {
    name LOAD_54; 	// name of Load
    parent node54; // parent node eka
    phases ABCN;
	frequency_measure_type PLL;	//Have to enable the frequency measurement behavior
    nominal_voltage 230.94;   
	//Add some players, otherwise this doesn't really do anything
	object player {
		flags DELTAMODE;
		property constant_power_C;
		file LOAD_54_C.csv; //Scv file name phase A
	};
}

object load {
    name LOAD_55; 	// name of Load
    parent node55; // parent node eka
    phases ABCN;
	frequency_measure_type PLL;	//Have to enable the frequency measurement behavior
    nominal_voltage 230.94;   
	//Add some players, otherwise this doesn't really do anything
	object player {
		flags DELTAMODE;
		property constant_power_A;
		file LOAD_55_A.csv; //Scv file name phase A
	};
	object player {
		flags DELTAMODE;
		property constant_power_B;
		file LOAD_55_B.csv; //Scv file name phase B
	};
	object player {
		flags DELTAMODE;
		property constant_power_C;
		file LOAD_55_C.csv; //Scv file name phase C
	};
}

object load {
    name LOAD_57; 	// name of Load
    parent node57; // parent node eka
    phases ABCN;
	frequency_measure_type PLL;	//Have to enable the frequency measurement behavior
    nominal_voltage 230.94;   
	//Add some players, otherwise this doesn't really do anything
	object player {
		flags DELTAMODE;
		property constant_power_A;
		file LOAD_57_A.csv; //Scv file name phase A
	};
	object player {
		flags DELTAMODE;
		property constant_power_B;
		file LOAD_57_B.csv; //Scv file name phase B
	};
	object player {
		flags DELTAMODE;
		property constant_power_C;
		file LOAD_57_C.csv; //Scv file name phase C
	};
}

object load {
    name LOAD_58; 	// name of Load
    parent node58; // parent node eka
    phases ABCN;
	frequency_measure_type PLL;	//Have to enable the frequency measurement behavior
    nominal_voltage 230.94;   
	//Add some players, otherwise this doesn't really do anything
	object player {
		flags DELTAMODE;
		property constant_power_A;
		file LOAD_58_A.csv; //Scv file name phase A
	};
	object player {
		flags DELTAMODE;
...